
OS:Version,
  {26c2842a-38ce-4e93-8f28-f46f28ade6ff}, !- Handle
  1.10.0;                                 !- Version Identifier

OS:ClimateZones,
  {8a3ac41c-57d4-48e4-a48e-1f232e262211}, !- Handle
  ,                                       !- Active Institution
  ,                                       !- Active Year
  ASHRAE,                                 !- Climate Zone Institution Name 1
  ANSI/ASHRAE Standard 169,               !- Climate Zone Document Name 1
  2006,                                   !- Climate Zone Document Year 1
  ,                                       !- Climate Zone Value 1
  CEC,                                    !- Climate Zone Institution Name 2
  California Climate Zone Descriptions,   !- Climate Zone Document Name 2
  1995,                                   !- Climate Zone Document Year 2
  ;                                       !- Climate Zone Value 2

OS:LifeCycleCost:Parameters,
  {1d4d0f18-e6dd-45c8-896c-f4f2a89e6ae5}, !- Handle
  FEMP,                                   !- Analysis Type
  ,                                       !- Discounting Convention
  ,                                       !- Inflation Approach
  ,                                       !- Real Discount Rate
  ,                                       !- Nominal Discount Rate
  ,                                       !- Inflation
  ,                                       !- Base Date Month
  ,                                       !- Base Date Year
  ,                                       !- Service Date Month
  ,                                       !- Service Date Year
  ,                                       !- Length of Study Period in Years
  ,                                       !- Tax Rate
  ,                                       !- Depreciation Method
  Yes;                                    !- Use NIST Fuel Escalation Rates

OS:YearDescription,
  {c1349a5a-d7e1-4ed9-8e5b-24480649c25c}, !- Handle
  ,                                       !- Calendar Year
  Sunday,                                 !- Day of Week for Start Day
  ;                                       !- Is Leap Year

OS:RadianceParameters,
  {8297fd56-36de-4b79-a182-b7636f4ae3e3}, !- Handle
  1,                                      !- Accumulated Rays per Record
  0,                                      !- Direct Threshold
  1,                                      !- Direct Certainty
  1,                                      !- Direct Jitter
  1,                                      !- Direct Pretest
  6,                                      !- Ambient Bounces VMX
  2,                                      !- Ambient Bounces DMX
  4050,                                   !- Ambient Divisions VMX
  512,                                    !- Ambient Divisions DMX
  256,                                    !- Ambient Supersamples
  0.001,                                  !- Limit Weight VMX
  0.001,                                  !- Limit Weight DMX
  500,                                    !- Klems Sampling Density
  146;                                    !- Sky Discretization Resolution

OS:SimulationControl,
  {7c57f4fc-548f-44e7-a438-1feca6a75629}; !- Handle

OS:Sizing:Parameters,
  {ee365675-827e-489e-9a24-0f596988dec4}, !- Handle
  1.25,                                   !- Heating Sizing Factor
  1.15;                                   !- Cooling Sizing Factor

OS:ProgramControl,
  {8a7b938e-cdcb-40af-82b1-79c267c36bae}; !- Handle

OS:Timestep,
  {31824a36-2f0f-4919-a534-cdb00e20d2e0}, !- Handle
  6;                                      !- Number of Timesteps per Hour

OS:OutputControl:ReportingTolerances,
  {275082a5-6cfd-4756-972e-8810ab253e29}; !- Handle

OS:ConvergenceLimits,
  {fcca1605-8471-4f2f-a485-a59582311771}; !- Handle

OS:ShadowCalculation,
  {d875de65-75c7-4d9d-883e-07bd79421b67}, !- Handle
  7,                                      !- Calculation Frequency
  15000;                                  !- Maximum Figures in Shadow Overlap Calculations

OS:SurfaceConvectionAlgorithm:Inside,
  {5add9a33-b760-4e82-a0f9-3ae0e369b9c4}, !- Handle
  TARP;                                   !- Algorithm

OS:SurfaceConvectionAlgorithm:Outside,
  {0257be16-14fc-418e-bc73-178201ccc4ec}, !- Handle
  DOE-2;                                  !- Algorithm

OS:HeatBalanceAlgorithm,
  {5a22c4c4-a6a6-4769-b0a8-f79498f98a6d}, !- Handle
  ConductionTransferFunction,             !- Algorithm
  200;                                    !- Surface Temperature Upper Limit {C}

OS:ZoneAirHeatBalanceAlgorithm,
  {24c912f8-6f7f-4792-8ea0-a8d47b3c41a1}, !- Handle
  AnalyticalSolution;                     !- Algorithm

OS:ZoneAirContaminantBalance,
  {07e7d420-4b9b-4760-8a70-01b36aa6074f}; !- Handle

OS:ZoneCapacitanceMultiplier:ResearchSpecial,
  {91056672-db13-4057-9cb7-7ac44d24bfc5}, !- Handle
  ,                                       !- Temperature Capacity Multiplier
  ,                                       !- Humidity Capacity Multiplier
  ;                                       !- Carbon Dioxide Capacity Multiplier

OS:RunPeriod,
  {17c33f47-c9b9-463a-84bc-12596f349148}, !- Handle
  Run Period 1,                           !- Name
  1,                                      !- Begin Month
  1,                                      !- Begin Day of Month
  12,                                     !- End Month
  31,                                     !- End Day of Month
  ,                                       !- Use Weather File Holidays and Special Days
  ,                                       !- Use Weather File Daylight Saving Period
  ,                                       !- Apply Weekend Holiday Rule
  ,                                       !- Use Weather File Rain Indicators
  ,                                       !- Use Weather File Snow Indicators
  ;                                       !- Number of Times Runperiod to be Repeated

OS:Building,
  {e0ce3521-4e53-4eca-8017-2f1c8dec2b50}, !- Handle
  Building 1,                             !- Name
  ,                                       !- Building Sector Type
  ,                                       !- North Axis {deg}
  ,                                       !- Nominal Floor to Floor Height {m}
  {ea9ae6c3-be66-49c6-b6b3-5e3749092d2c}, !- Space Type Name
  {02aa7801-4efc-4564-b077-8a98d42bed86}, !- Default Construction Set Name
  ,                                       !- Default Schedule Set Name
  ,                                       !- Standards Number of Stories
  ,                                       !- Standards Number of Above Ground Stories
  ,                                       !- Standards Building Type
  ,                                       !- Standards Number of Living Units
  ,                                       !- Relocatable
  ;                                       !- Nominal Floor to Ceiling Height {m}

OS:Facility,
  {b6e6be84-f909-42a5-9deb-ef70c0296721}; !- Handle

OS:Site,
  {f38b0e3c-04e1-4822-940e-9b46c436222c}, !- Handle
  LOS_ANGELES,                            !- Name
  33.93,                                  !- Latitude {deg}
  -118.4,                                 !- Longitude {deg}
  -8,                                     !- Time Zone {hr}
  32,                                     !- Elevation {m}
  ;                                       !- Terrain

OS:SpaceType,
  {35fe2615-40fb-4c04-be44-48c7db541339}, !- Handle
  Office 1,                               !- Name
  {02aa7801-4efc-4564-b077-8a98d42bed86}, !- Default Construction Set Name
  {c7ee2ad6-487f-4e1f-a9ff-3698678943cc}, !- Default Schedule Set Name
  {64e4f58f-8b3f-4f7b-bffa-53724f7f7d70}, !- Group Rendering Name
  {7ab2648a-b610-491d-8a4d-fa374ff48ab3}, !- Design Specification Outdoor Air Object Name
  LargeHotel,                             !- Standards Building Type
  Office;                                 !- Standards Space Type

OS:Rendering:Color,
  {64e4f58f-8b3f-4f7b-bffa-53724f7f7d70}, !- Handle
  Rendering Color 1,                      !- Name
  230,                                    !- Rendering Red Value
  196,                                    !- Rendering Green Value
  120;                                    !- Rendering Blue Value

OS:DefaultScheduleSet,
  {c7ee2ad6-487f-4e1f-a9ff-3698678943cc}, !- Handle
  Office,                                 !- Name
  ,                                       !- Hours of Operation Schedule Name
  {cf60d985-17a8-46ba-ad33-a3b9cc1b7930}, !- Number of People Schedule Name
  {6ad77061-a925-40cd-a9cd-0ee33e326cce}, !- People Activity Level Schedule Name
  {9875093c-64f1-4f5c-b74e-21c88431de4f}, !- Lighting Schedule Name
  {9b78cbfe-04c2-4cfb-8ffc-0d5f1dd9ce55}, !- Electric Equipment Schedule Name
  ,                                       !- Gas Equipment Schedule Name
  ,                                       !- Hot Water Equipment Schedule Name
  {453a3d0f-2d4b-4c48-a64f-8bfd56bb0cec}, !- Infiltration Schedule Name
  ,                                       !- Steam Equipment Schedule Name
  ;                                       !- Other Equipment Schedule Name

OS:Lights:Definition,
  {b7e4039e-a4c7-4e91-9fe6-4eabee9983af}, !- Handle
  Office 5,                               !- Name
  Watts/Area,                             !- Design Level Calculation Method
  ,                                       !- Lighting Level {W}
  2.9923670958453,                        !- Watts per Space Floor Area {W/m2}
  ;                                       !- Watts per Person {W/person}

OS:Lights,
  {375ef3c7-4be0-4348-a467-4a7c1edec179}, !- Handle
  Office 2,                               !- Name
  {b7e4039e-a4c7-4e91-9fe6-4eabee9983af}, !- Lights Definition Name
  {35fe2615-40fb-4c04-be44-48c7db541339}; !- Space or SpaceType Name

OS:Schedule:Ruleset,
  {9875093c-64f1-4f5c-b74e-21c88431de4f}, ! Handle
  Office Light,                           ! Name
  {1bce726f-c207-4b7a-bd9f-906dacc65ba5}, ! Schedule Type Limits Name
  {9a25e306-a16d-4654-bb12-6edc1f2ac1ad}, ! Default Day Schedule Name
  {7f58e419-51a3-4037-b6be-da60c45e167b}, ! Summer Design Day Schedule Name
  {620d7528-223a-4f1f-aa16-635f05179948}; ! Winter Design Day Schedule Name

OS:ScheduleTypeLimits,
  {1bce726f-c207-4b7a-bd9f-906dacc65ba5}, ! Handle
  Fraction,                               ! Name
  0,                                      ! Lower Limit Value
  1,                                      ! Upper Limit Value
  CONTINUOUS;                             ! Numeric Type

OS:Schedule:Day,
  {9a25e306-a16d-4654-bb12-6edc1f2ac1ad}, ! Handle
  LargeHotel Bldg Light Default Schedule, ! Name
  {1bce726f-c207-4b7a-bd9f-906dacc65ba5}, ! Schedule Type Limits Name
  ,                                       ! Interpolate to Timestep
  1,                                      !- Hour 1
  0,                                      !- Minute 1
  0,                                      !- Value Until Time 1
  2,                                      !- Hour 2
  0,                                      !- Minute 2
  0,                                      !- Value Until Time 2
  5,                                      !- Hour 3
  0,                                      !- Minute 3
  0,                                      !- Value Until Time 3
  6,                                      !- Hour 4
  0,                                      !- Minute 4
  0,                                      !- Value Until Time 4
  7,                                      !- Hour 5
  0,                                      !- Minute 5
  0,                                      !- Value Until Time 5
  8,                                      !- Hour 6
  0,                                      !- Minute 6
  0,                                      !- Value Until Time 6
  10,                                     !- Hour 7
  0,                                      !- Minute 7
  0,                                      !- Value Until Time 7
  18,                                     !- Hour 8
  0,                                      !- Minute 8
  0,                                      !- Value Until Time 8
  19,                                     !- Hour 9
  0,                                      !- Minute 9
  0,                                      !- Value Until Time 9
  20,                                     !- Hour 10
  0,                                      !- Minute 10
  0,                                      !- Value Until Time 10
  21,                                     !- Hour 11
  0,                                      !- Minute 11
  0,                                      !- Value Until Time 11
  22,                                     !- Hour 12
  0,                                      !- Minute 12
  0,                                      !- Value Until Time 12
  23,                                     !- Hour 13
  0,                                      !- Minute 13
  0,                                      !- Value Until Time 13
  24,                                     !- Hour 14
  0,                                      !- Minute 14
  0;                                      !- Value Until Time 14

OS:Schedule:Day,
  {7f58e419-51a3-4037-b6be-da60c45e167b}, ! Handle
  LargeHotel Bldg Light Summer Design Day, ! Name
  {1bce726f-c207-4b7a-bd9f-906dacc65ba5}, ! Schedule Type Limits Name
  ,                                       ! Interpolate to Timestep
  24,                                     ! Hour 1
  0,                                      ! Minute 1
  1;                                      ! Value Until Time 1

OS:Schedule:Day,
  {620d7528-223a-4f1f-aa16-635f05179948}, ! Handle
  LargeHotel Bldg Light Winter Design Day, ! Name
  {1bce726f-c207-4b7a-bd9f-906dacc65ba5}, ! Schedule Type Limits Name
  ,                                       ! Interpolate to Timestep
  24,                                     ! Hour 1
  0,                                      ! Minute 1
  0;                                      ! Value Until Time 1

OS:Schedule:Rule,
  {b4c91ca7-4a17-476c-8647-4007f61ddb60}, ! Handle
  LargeHotel Bldg Light Rule 1,           ! Name
  {9875093c-64f1-4f5c-b74e-21c88431de4f}, ! Schedule Ruleset Name
  0,                                      ! Rule Order
  {42abac46-b85f-43b6-b41c-41fe9b412d88}, ! Day Schedule Name
  No,                                     ! Apply Sunday
  No,                                     ! Apply Monday
  No,                                     ! Apply Tuesday
  No,                                     ! Apply Wednesday
  No,                                     ! Apply Thursday
  No,                                     ! Apply Friday
  No,                                     ! Apply Saturday
  ,                                       ! Apply Holiday
  DateRange,                              ! Date Specification Type
  1,                                      ! Start Month
  1,                                      ! Start Day
  12,                                     ! End Month
  31;                                     ! End Day

OS:Schedule:Day,
  {42abac46-b85f-43b6-b41c-41fe9b412d88}, ! Handle
  LargeHotel Bldg Light Rule 1 Day Schedule, ! Name
  {1bce726f-c207-4b7a-bd9f-906dacc65ba5}, ! Schedule Type Limits Name
  ,                                       ! Interpolate to Timestep
  2,                                      ! Hour 1
  0,                                      ! Minute 1
  0.29999999999999999,                    ! Value Until Time 1
  6,                                      ! Hour 2
  0,                                      ! Minute 2
  0.20000000000000001,                    ! Value Until Time 2
  7,                                      ! Hour 3
  0,                                      ! Minute 3
  0.29999999999999999,                    ! Value Until Time 3
  9,                                      ! Hour 4
  0,                                      ! Minute 4
  0.40000000000000002,                    ! Value Until Time 4
  13,                                     ! Hour 5
  0,                                      ! Minute 5
  0.29999999999999999,                    ! Value Until Time 5
  18,                                     ! Hour 6
  0,                                      ! Minute 6
  0.20000000000000001,                    ! Value Until Time 6
  19,                                     ! Hour 7
  0,                                      ! Minute 7
  0.5,                                    ! Value Until Time 7
  20,                                     ! Hour 8
  0,                                      ! Minute 8
  0.69999999999999996,                    ! Value Until Time 8
  21,                                     ! Hour 9
  0,                                      ! Minute 9
  0.80000000000000004,                    ! Value Until Time 9
  22,                                     ! Hour 10
  0,                                      ! Minute 10
  0.59999999999999998,                    ! Value Until Time 10
  23,                                     ! Hour 11
  0,                                      ! Minute 11
  0.5,                                    ! Value Until Time 11
  24,                                     ! Hour 12
  0,                                      ! Minute 12
  0.29999999999999999;                    ! Value Until Time 12

OS:Schedule:Rule,
  {1bc9f3d8-8925-42e2-ac8b-3f90de652ad8}, ! Handle
  LargeHotel Bldg Light Rule 2,           ! Name
  {9875093c-64f1-4f5c-b74e-21c88431de4f}, ! Schedule Ruleset Name
  1,                                      ! Rule Order
  {f4c86fe5-a0fd-4a49-aaf0-7d12f360e0fd}, ! Day Schedule Name
  No,                                     ! Apply Sunday
  No,                                     ! Apply Monday
  No,                                     ! Apply Tuesday
  No,                                     ! Apply Wednesday
  No,                                     ! Apply Thursday
  No,                                     ! Apply Friday
  No,                                     ! Apply Saturday
  ,                                       ! Apply Holiday
  DateRange,                              ! Date Specification Type
  1,                                      ! Start Month
  1,                                      ! Start Day
  12,                                     ! End Month
  31;                                     ! End Day

OS:Schedule:Day,
  {f4c86fe5-a0fd-4a49-aaf0-7d12f360e0fd}, ! Handle
  LargeHotel Bldg Light Rule 2 Day Schedule, ! Name
  {1bce726f-c207-4b7a-bd9f-906dacc65ba5}, ! Schedule Type Limits Name
  ,                                       ! Interpolate to Timestep
  2,                                      ! Hour 1
  0,                                      ! Minute 1
  0.20000000000000001,                    ! Value Until Time 1
  6,                                      ! Hour 2
  0,                                      ! Minute 2
  0.10000000000000001,                    ! Value Until Time 2
  8,                                      ! Hour 3
  0,                                      ! Minute 3
  0.29999999999999999,                    ! Value Until Time 3
  10,                                     ! Hour 4
  0,                                      ! Minute 4
  0.40000000000000002,                    ! Value Until Time 4
  11,                                     ! Hour 5
  0,                                      ! Minute 5
  0.29999999999999999,                    ! Value Until Time 5
  18,                                     ! Hour 6
  0,                                      ! Minute 6
  0.25,                                   ! Value Until Time 6
  19,                                     ! Hour 7
  0,                                      ! Minute 7
  0.59999999999999998,                    ! Value Until Time 7
  22,                                     ! Hour 8
  0,                                      ! Minute 8
  0.69999999999999996,                    ! Value Until Time 8
  23,                                     ! Hour 9
  0,                                      ! Minute 9
  0.59999999999999998,                    ! Value Until Time 9
  24,                                     ! Hour 10
  0,                                      ! Minute 10
  0.29999999999999999;                    ! Value Until Time 10

OS:DesignSpecification:OutdoorAir,
  {7ab2648a-b610-491d-8a4d-fa374ff48ab3}, !- Handle
  Office,                                 !- Name
  Sum,                                    !- Outdoor Air Method
  0.009438948864,                         !- Outdoor Air Flow per Person {m3/s-person}
  ,                                       !- Outdoor Air Flow per Floor Area {m3/s-m2}
  ,                                       !- Outdoor Air Flow Rate {m3/s}
  ,                                       !- Outdoor Air Flow Air Changes per Hour {1/hr}
  ;                                       !- Outdoor Air Flow Rate Fraction Schedule Name

OS:People:Definition,
  {6fc921b2-04a1-465a-b795-5fa5ac704360}, !- Handle
  Living room,                            !- Name
  People/Area,                            !- Number of People Calculation Method
  ,                                       !- Number of People {people}
  0.0355209043751421,                     !- People per Space Floor Area {person/m2}
  ,                                       !- Space Floor Area per Person {m2/person}
  0.3;                                    !- Fraction Radiant

OS:Schedule:Ruleset,
  {cf60d985-17a8-46ba-ad33-a3b9cc1b7930}, ! Handle
  Office Occ,                             ! Name
  {1bce726f-c207-4b7a-bd9f-906dacc65ba5}, ! Schedule Type Limits Name
  {5196f7b0-4b61-49d7-b552-3b2c3aa75eda}, ! Default Day Schedule Name
  {3a9b6214-f7be-4f31-be59-0034808817f3}, ! Summer Design Day Schedule Name
  {1d55fbcb-caed-4965-b2f6-c5f54fb8ca94}; ! Winter Design Day Schedule Name

OS:Schedule:Day,
  {5196f7b0-4b61-49d7-b552-3b2c3aa75eda}, ! Handle
  LargeHotel Bldg Occ Default Schedule,   ! Name
  {1bce726f-c207-4b7a-bd9f-906dacc65ba5}, ! Schedule Type Limits Name
  ,                                       ! Interpolate to Timestep
  6,                                      !- Hour 1
  0,                                      !- Minute 1
  0,                                      !- Value Until Time 1
  7,                                      !- Hour 2
  0,                                      !- Minute 2
  0,                                      !- Value Until Time 2
  9,                                      !- Hour 3
  0,                                      !- Minute 3
  0,                                      !- Value Until Time 3
  15,                                     !- Hour 4
  0,                                      !- Minute 4
  0,                                      !- Value Until Time 4
  16,                                     !- Hour 5
  0,                                      !- Minute 5
  0,                                      !- Value Until Time 5
  19,                                     !- Hour 6
  0,                                      !- Minute 6
  0,                                      !- Value Until Time 6
  21,                                     !- Hour 7
  0,                                      !- Minute 7
  0,                                      !- Value Until Time 7
  22,                                     !- Hour 8
  0,                                      !- Minute 8
  0,                                      !- Value Until Time 8
  24,                                     !- Hour 9
  0,                                      !- Minute 9
  0;                                      !- Value Until Time 9

OS:Schedule:Day,
  {3a9b6214-f7be-4f31-be59-0034808817f3}, ! Handle
  LargeHotel Bldg Occ Summer Design Day,  ! Name
  {1bce726f-c207-4b7a-bd9f-906dacc65ba5}, ! Schedule Type Limits Name
  ,                                       ! Interpolate to Timestep
  24,                                     ! Hour 1
  0,                                      ! Minute 1
  1;                                      ! Value Until Time 1

OS:Schedule:Day,
  {1d55fbcb-caed-4965-b2f6-c5f54fb8ca94}, ! Handle
  LargeHotel Bldg Occ Winter Design Day,  ! Name
  {1bce726f-c207-4b7a-bd9f-906dacc65ba5}, ! Schedule Type Limits Name
  ,                                       ! Interpolate to Timestep
  24,                                     ! Hour 1
  0,                                      ! Minute 1
  0;                                      ! Value Until Time 1

OS:Schedule:Ruleset,
  {8d5d35d7-cad9-4018-8c5d-aaef37057c81}, ! Handle
  Living room activity,                   ! Name
  {6fb1a381-cb9e-4abb-b1c2-6d496efe56ef}, ! Schedule Type Limits Name
  {311f4a76-0758-4f20-9522-0c07d1a795d5}, ! Default Day Schedule Name
  {7baf7779-634b-469b-ac02-bfff7d996f82}, ! Summer Design Day Schedule Name
  {a279ec39-310b-40bc-8e1d-0283b5217273}; ! Winter Design Day Schedule Name

OS:ScheduleTypeLimits,
  {6fb1a381-cb9e-4abb-b1c2-6d496efe56ef}, !- Handle
  ActivityLevel 3,                        !- Name
  0,                                      !- Lower Limit Value {BasedOnField A4}
  ,                                       !- Upper Limit Value {BasedOnField A4}
  Continuous,                             !- Numeric Type
  ActivityLevel;                          !- Unit Type

OS:Schedule:Day,
  {311f4a76-0758-4f20-9522-0c07d1a795d5}, ! Handle
  LargeHotel Activity Default Schedule,   ! Name
  {6fb1a381-cb9e-4abb-b1c2-6d496efe56ef}, ! Schedule Type Limits Name
  ,                                       ! Interpolate to Timestep
  24,                                     !- Hour 1
  0,                                      !- Minute 1
  0;                                      !- Value Until Time 1

OS:Schedule:Day,
  {7baf7779-634b-469b-ac02-bfff7d996f82}, ! Handle
  LargeHotel Activity Summer Design Day,  ! Name
  {6fb1a381-cb9e-4abb-b1c2-6d496efe56ef}, ! Schedule Type Limits Name
  ,                                       ! Interpolate to Timestep
  24,                                     ! Hour 1
  0,                                      ! Minute 1
  120;                                    ! Value Until Time 1

OS:Schedule:Day,
  {a279ec39-310b-40bc-8e1d-0283b5217273}, ! Handle
  LargeHotel Activity Winter Design Day,  ! Name
  {6fb1a381-cb9e-4abb-b1c2-6d496efe56ef}, ! Schedule Type Limits Name
  ,                                       ! Interpolate to Timestep
  24,                                     ! Hour 1
  0,                                      ! Minute 1
  120;                                    ! Value Until Time 1

OS:Schedule:Ruleset,
  {453a3d0f-2d4b-4c48-a64f-8bfd56bb0cec}, ! Handle
  LargeHotel Infil Quarter On,            ! Name
  {1bce726f-c207-4b7a-bd9f-906dacc65ba5}, ! Schedule Type Limits Name
  {1aa28c49-844d-4f7d-9d09-3a0a394d5543}, ! Default Day Schedule Name
  {a652f19d-6bdb-4893-9560-0e3cca82fb8c}, ! Summer Design Day Schedule Name
  {870412f3-7d39-4752-a358-3435fac0f13c}; ! Winter Design Day Schedule Name

OS:Schedule:Day,
  {1aa28c49-844d-4f7d-9d09-3a0a394d5543}, ! Handle
  LargeHotel Infil Quarter On Default Schedule, ! Name
  {1bce726f-c207-4b7a-bd9f-906dacc65ba5}, ! Schedule Type Limits Name
  ,                                       ! Interpolate to Timestep
  24,                                     !- Hour 1
  0,                                      !- Minute 1
  0.25;                                   !- Value Until Time 1

OS:Schedule:Day,
  {a652f19d-6bdb-4893-9560-0e3cca82fb8c}, ! Handle
  LargeHotel Infil Quarter On Summer Design Day, ! Name
  {1bce726f-c207-4b7a-bd9f-906dacc65ba5}, ! Schedule Type Limits Name
  ,                                       ! Interpolate to Timestep
  24,                                     ! Hour 1
  0,                                      ! Minute 1
  0.25;                                   ! Value Until Time 1

OS:Schedule:Day,
  {870412f3-7d39-4752-a358-3435fac0f13c}, ! Handle
  LargeHotel Infil Quarter On Winter Design Day, ! Name
  {1bce726f-c207-4b7a-bd9f-906dacc65ba5}, ! Schedule Type Limits Name
  ,                                       ! Interpolate to Timestep
  24,                                     ! Hour 1
  0,                                      ! Minute 1
  0.25;                                   ! Value Until Time 1

OS:Schedule:Ruleset,
  {9b78cbfe-04c2-4cfb-8ffc-0d5f1dd9ce55}, ! Handle
  Office macbook pro,                     ! Name
  {1bce726f-c207-4b7a-bd9f-906dacc65ba5}, ! Schedule Type Limits Name
  {c8e29beb-45e6-4559-aed1-e06dce5dee1d}, ! Default Day Schedule Name
  {4ed698e2-bed5-4b13-8b49-94f80aebe483}, ! Summer Design Day Schedule Name
  {7d839906-551f-4265-9015-fb2e8f51f0ea}; ! Winter Design Day Schedule Name

OS:Schedule:Day,
  {c8e29beb-45e6-4559-aed1-e06dce5dee1d}, ! Handle
  LargeHotel Bldg Equip Default Schedule, ! Name
  {1bce726f-c207-4b7a-bd9f-906dacc65ba5}, ! Schedule Type Limits Name
  ,                                       ! Interpolate to Timestep
  1,                                      !- Hour 1
  0,                                      !- Minute 1
  0.100000001490116,                      !- Value Until Time 1
  2,                                      !- Hour 2
  0,                                      !- Minute 2
  0.100000001490116,                      !- Value Until Time 2
  5,                                      !- Hour 3
  0,                                      !- Minute 3
  0.100000001490116,                      !- Value Until Time 3
  6,                                      !- Hour 4
  0,                                      !- Minute 4
  0.100000001490116,                      !- Value Until Time 4
  7,                                      !- Hour 5
  0,                                      !- Minute 5
  0.100000001490116,                      !- Value Until Time 5
  8,                                      !- Hour 6
  0,                                      !- Minute 6
  0.100000001490116,                      !- Value Until Time 6